(1r,4r)-1,4-dimethylcyclohexane
 OpenBabel10041011423D

 24 24  0  0  0  0  0  0  0  0999 V2000
    1.4419   -0.0729    0.2567 C   0  0  0  0  0
    2.7520    0.7039    0.3922 C   0  0  0  0  0
    0.7292    0.2462   -1.0717 C   0  0  0  0  0
   -0.4547    1.1917   -0.8925 C   0  0  0  0  0
   -1.5112    0.6330    0.0776 C   0  0  0  0  0
   -2.5848   -0.1669   -0.6638 C   0  0  0  0  0
   -0.8937   -0.2236    1.1975 C   0  0  0  0  0
    0.5485    0.1761    1.4836 C   0  0  0  0  0
    1.7036   -1.1390    0.2351 H   0  0  0  0  0
    3.4219    0.4857   -0.4464 H   0  0  0  0  0
    2.5753    1.7840    0.4136 H   0  0  0  0  0
    3.2729    0.4249    1.3146 H   0  0  0  0  0
    1.4309    0.6654   -1.8021 H   0  0  0  0  0
    0.3628   -0.6920   -1.5091 H   0  0  0  0  0
   -0.9043    1.4180   -1.8663 H   0  0  0  0  0
   -0.0817    2.1476   -0.5009 H   0  0  0  0  0
   -2.0132    1.4931    0.5393 H   0  0  0  0  0
   -3.0892    0.4569   -1.4095 H   0  0  0  0  0
   -3.3454   -0.5336    0.0338 H   0  0  0  0  0
   -2.1543   -1.0304   -1.1813 H   0  0  0  0  0
   -0.9198   -1.2876    0.9317 H   0  0  0  0  0
   -1.4966   -0.1178    2.1079 H   0  0  0  0  0
    0.9315   -0.3976    2.3364 H   0  0  0  0  0
    0.5797    1.2322    1.7790 H   0  0  0  0  0
  2  1  1  0  0  0
  3  1  1  0  0  0
  8  1  1  0  0  0
  1  9  1  0  0  0
  2 10  1  0  0  0
  2 11  1  0  0  0
  2 12  1  0  0  0
  4  3  1  0  0  0
  3 13  1  0  0  0
  3 14  1  0  0  0
  5  4  1  0  0  0
  4 15  1  0  0  0
  4 16  1  0  0  0
  6  5  1  0  0  0
  7  5  1  0  0  0
  5 17  1  0  0  0
  6 18  1  0  0  0
  6 19  1  0  0  0
  6 20  1  0  0  0
  8  7  1  0  0  0
  7 21  1  0  0  0
  7 22  1  0  0  0
  8 23  1  0  0  0
  8 24  1  0  0  0
M  END
>  <energy>
12.575266766609097

$$$$
