(1s,4s)-1,4-dimethylcyclohexane
  662               3D

 24 24  0  0  0  0  0  0  0  0999 V2000
    1.3972    0.0043    0.0883 C   0  0  0  0  0  0  0  0  0  0  0  0
    2.4457   -0.1333    1.1907 C   0  0  0  0  0  0  0  0  0  0  0  0
    0.5191    1.2392    0.3285 C   0  0  0  0  0  0  0  0  0  0  0  0
   -0.5806    1.3668   -0.7253 C   0  0  0  0  0  0  0  0  0  0  0  0
   -1.4370    0.1000   -0.8593 C   0  0  0  0  0  0  0  0  0  0  0  0
   -2.3804   -0.0743    0.3340 C   0  0  0  0  0  0  0  0  0  0  0  0
   -0.5504   -1.1357   -1.0662 C   0  0  0  0  0  0  0  0  0  0  0  0
    0.5474   -1.2690   -0.0111 C   0  0  0  0  0  0  0  0  0  0  0  0
    1.9267    0.1389   -0.8645 H   0  0  0  0  0  0  0  0  0  0  0  0
    3.0930   -0.9971    1.0056 H   0  0  0  0  0  0  0  0  0  0  0  0
    3.0810    0.7576    1.2362 H   0  0  0  0  0  0  0  0  0  0  0  0
    1.9771   -0.2654    2.1718 H   0  0  0  0  0  0  0  0  0  0  0  0
    1.1393    2.1437    0.3086 H   0  0  0  0  0  0  0  0  0  0  0  0
    0.0698    1.1933    1.3279 H   0  0  0  0  0  0  0  0  0  0  0  0
   -1.2147    2.2303   -0.4919 H   0  0  0  0  0  0  0  0  0  0  0  0
   -0.1125    1.5794   -1.6954 H   0  0  0  0  0  0  0  0  0  0  0  0
   -2.0689    0.2139   -1.7499 H   0  0  0  0  0  0  0  0  0  0  0  0
   -3.0180   -0.9538    0.1939 H   0  0  0  0  0  0  0  0  0  0  0  0
   -1.8425   -0.1994    1.2781 H   0  0  0  0  0  0  0  0  0  0  0  0
   -3.0361    0.7970    0.4361 H   0  0  0  0  0  0  0  0  0  0  0  0
   -1.1629   -2.0451   -1.0759 H   0  0  0  0  0  0  0  0  0  0  0  0
   -0.0788   -1.0690   -2.0553 H   0  0  0  0  0  0  0  0  0  0  0  0
    1.1875   -2.1219   -0.2679 H   0  0  0  0  0  0  0  0  0  0  0  0
    0.0990   -1.5002    0.9628 H   0  0  0  0  0  0  0  0  0  0  0  0
  2  1  1  0  0  0  0
  3  1  1  0  0  0  0
  4  3  1  0  0  0  0
  5  4  1  0  0  0  0
  6  5  1  0  0  0  0
  7  5  1  0  0  0  0
  8  7  1  0  0  0  0
  8  1  1  0  0  0  0
  1  9  1  0  0  0  0
  2 10  1  0  0  0  0
  2 11  1  0  0  0  0
  2 12  1  0  0  0  0
  3 13  1  0  0  0  0
  3 14  1  0  0  0  0
  4 15  1  0  0  0  0
  4 16  1  0  0  0  0
  5 17  1  0  0  0  0
  6 18  1  0  0  0  0
  6 19  1  0  0  0  0
  6 20  1  0  0  0  0
  7 21  1  0  0  0  0
  7 22  1  0  0  0  0
  8 23  1  0  0  0  0
  8 24  1  0  0  0  0
M  END
>  <energy>
6.3454773141617542

$$$$
