C1(O)CC(O)C1_1
  662               3D

 14 14  0  0  0  0  0  0  0  0999 V2000
    1.0511   -0.3643   -0.4297 C   0  0  0  0  0  0  0  0  0  0  0  0
    2.0623   -0.6508    0.5549 O   0  0  0  0  0  0  0  0  0  0  0  0
    0.4119    1.0307   -0.3621 C   0  0  0  0  0  0  0  0  0  0  0  0
   -0.9526    0.3948   -0.0544 C   0  0  0  0  0  0  0  0  0  0  0  0
   -1.5016    0.7082    1.2390 O   0  0  0  0  0  0  0  0  0  0  0  0
   -0.3261   -1.0014   -0.1900 C   0  0  0  0  0  0  0  0  0  0  0  0
    1.4441   -0.5925   -1.4276 H   0  0  0  0  0  0  0  0  0  0  0  0
    1.6772   -0.3765    1.4067 H   0  0  0  0  0  0  0  0  0  0  0  0
    0.4456    1.5861   -1.3055 H   0  0  0  0  0  0  0  0  0  0  0  0
    0.8042    1.6757    0.4312 H   0  0  0  0  0  0  0  0  0  0  0  0
   -1.6947    0.6034   -0.8346 H   0  0  0  0  0  0  0  0  0  0  0  0
   -2.3233    0.1901    1.2981 H   0  0  0  0  0  0  0  0  0  0  0  0
   -0.7054   -1.5832   -1.0368 H   0  0  0  0  0  0  0  0  0  0  0  0
   -0.3927   -1.6204    0.7109 H   0  0  0  0  0  0  0  0  0  0  0  0
  2  1  1  0  0  0  0
  3  1  1  0  0  0  0
  4  3  1  0  0  0  0
  5  4  1  0  0  0  0
  6  4  1  0  0  0  0
  6  1  1  0  0  0  0
  1  7  1  0  0  0  0
  2  8  1  0  0  0  0
  3  9  1  0  0  0  0
  3 10  1  0  0  0  0
  4 11  1  0  0  0  0
  5 12  1  0  0  0  0
  6 13  1  0  0  0  0
  6 14  1  0  0  0  0
M  END
>  <energy>
8.6904270590760664

$$$$
